
**** 09/03/23 16:57:19 **** PSpice 17.4.0 (4 January 2023) **** ID# 0 ********

 ** Profile: "SCHEMATIC1-transient"  [ d:\orcad allegro\pcb project\555-timer\555-timer-pspicefiles\schematic1\transient.sim ] 


 ****     CIRCUIT DESCRIPTION


******************************************************************************




** Creating circuit file "transient.cir" 
** WARNING: THIS AUTOMATICALLY GENERATED FILE MAY BE OVERWRITTEN BY SUBSEQUENT SIMULATIONS

*Libraries: 
* Profile Libraries :
* Local Libraries :
* From [PSPICE NETLIST] section of D:\orcad allegro\Cadence\SPB_Data\cdssetup\OrCAD_PSpice\17.4.0\PSpice.ini file:
.lib "nom.lib" 

*Analysis directives: 
.TRAN  0 2 0 
.OPTIONS ADVCONV
.PROBE64 V(alias(*)) I(alias(*)) W(alias(*)) D(alias(*)) NOISE(alias(*)) 
.INC "..\SCHEMATIC1.net" 



**** INCLUDING SCHEMATIC1.net ****
* source 555-TIMER
R_R1         N02974 OUT  240 TC=0,0 
R_R2         OUT N00720  240 TC=0,0 
R_R3         THRESHOLD OUT  36k TC=0,0 
R_R4         N00819 THRESHOLD  220k TC=0,0 
V_V1         N00819 0 0Vdc
C_C1         0 THRESHOLD  10u  TC=0,0 
C_C2         0 CONTROL  10n  TC=0,0 
X_U2         0 THRESHOLD OUT N00819 CONTROL THRESHOLD DISCHARGE N00819 555B

**** RESUMING transient.cir ****
.END

ERROR(ORPSIM-15141): Less than 2 connections at node N02974.

ERROR(ORPSIM-15141): Less than 2 connections at node N00720.

ERROR(ORPSIM-15141): Less than 2 connections at node DISCHARGE.
